Circuit: * C:\Users\kaitl\OneDrive\Documents\IEEE RAS\robomaster_hardware\SupercapManager\SPICE_sims\Housekeeping Power.asc

Questionable use of curly braces in "b§e_abmgate yint 0 v={if(v(a)>{{vthresh}},{{vss}},{{vdd}})}"
    Error: undefined symbol in: "if([v](a)>((vthresh)),((vss)),((vdd)))"
Questionable use of curly braces in "b§e_abmgate yint 0 v={if(v(a)>{{vthresh}}&v(b)>{{vthresh}},{{vdd}},{{vss}})}"
    Error: undefined symbol in: "if([v](a)>((vthresh))&v(b)>((vthresh)),((vdd)),((vss)))"
Questionable use of curly braces in "b§e_abmgate yint 0 v={if(v(a)>{{vthresh}},{{vdd}},{{vss}})}"
    Error: undefined symbol in: "if([v](a)>((vthresh)),((vdd)),((vss)))"
Questionable use of curly braces in "b§e_abmgate yint 0 v={if(v(a)>{{vthresh}},{{vdd}},{{vss}})}"
    Error: undefined symbol in: "if([v](a)>((vthresh)),((vdd)),((vss)))"
Direct Newton iteration for .op point succeeded.
Ignoring empty pin current: Ix(u1:cii)
Ignoring empty pin current: Ix(u1:ipk)
Ignoring empty pin current: Ix(u1:vcc)
Ignoring empty pin current: Ix(u1:cii)
Ignoring empty pin current: Ix(u1:ipk)
Ignoring empty pin current: Ix(u1:vcc)
.step c3=0.0001 l2=0.0001
Heightened Def Con from 8.16862e-006 to 8.17174e-006
Heightened Def Con from 8.1719e-006 to 8.2009e-006
Heightened Def Con from 9.55805e-006 to 9.56117e-006
Heightened Def Con from 9.56134e-006 to 9.59334e-006
Heightened Def Con from 1.08974e-005 to 1.09005e-005
Heightened Def Con from 1.09007e-005 to 1.09357e-005
Heightened Def Con from 1.2209e-005 to 1.22121e-005
Heightened Def Con from 1.22123e-005 to 1.22483e-005
Heightened Def Con from 1.3503e-005 to 1.35061e-005
Heightened Def Con from 1.35063e-005 to 1.35443e-005
Heightened Def Con from 1.47844e-005 to 1.47875e-005
Heightened Def Con from 1.47877e-005 to 1.48277e-005
Heightened Def Con from 1.6057e-005 to 1.60601e-005
Heightened Def Con from 1.60602e-005 to 1.60812e-005
Heightened Def Con from 1.73227e-005 to 1.73258e-005
Heightened Def Con from 1.7326e-005 to 1.7347e-005
Heightened Def Con from 1.85817e-005 to 1.85848e-005
Heightened Def Con from 1.8585e-005 to 1.8606e-005
Heightened Def Con from 1.98357e-005 to 1.98388e-005
Heightened Def Con from 1.98389e-005 to 1.98401e-005
Heightened Def Con from 2.10863e-005 to 2.10894e-005
Heightened Def Con from 2.10896e-005 to 2.11106e-005
Heightened Def Con from 2.2334e-005 to 2.23371e-005
Heightened Def Con from 2.23373e-005 to 2.23583e-005
Heightened Def Con from 2.3577e-005 to 2.35781e-005
Heightened Def Con from 2.3581e-005 to 2.35813e-005
Heightened Def Con from 2.4821e-005 to 2.48241e-005
Heightened Def Con from 2.48243e-005 to 2.48453e-005
Heightened Def Con from 2.60603e-005 to 2.60634e-005
Heightened Def Con from 2.60636e-005 to 2.60846e-005
Heightened Def Con from 2.72976e-005 to 2.73007e-005
Heightened Def Con from 2.73008e-005 to 2.73218e-005
Heightened Def Con from 2.85332e-005 to 2.85363e-005
Heightened Def Con from 2.85365e-005 to 2.85575e-005
Heightened Def Con from 2.97673e-005 to 2.97705e-005
Heightened Def Con from 2.97706e-005 to 2.97916e-005
Heightened Def Con from 3.10003e-005 to 3.10034e-005
Heightened Def Con from 3.10035e-005 to 3.10245e-005
Heightened Def Con from 3.22321e-005 to 3.22352e-005
Heightened Def Con from 3.22354e-005 to 3.22564e-005
Heightened Def Con from 3.34659e-005 to 3.34661e-005
Heightened Def Con from 3.46937e-005 to 3.46968e-005
Heightened Def Con from 3.4697e-005 to 3.4718e-005
Heightened Def Con from 3.59221e-005 to 3.59253e-005
Heightened Def Con from 3.59254e-005 to 3.59464e-005
Heightened Def Con from 3.71499e-005 to 3.7153e-005
Heightened Def Con from 3.71532e-005 to 3.71742e-005
Heightened Def Con from 3.8376e-005 to 3.83771e-005
Heightened Def Con from 3.838e-005 to 3.83802e-005
Heightened Def Con from 3.96072e-005 to 3.96084e-005
Heightened Def Con from 4.08369e-005 to 4.084e-005
Heightened Def Con from 4.08401e-005 to 4.08611e-005
Heightened Def Con from 4.20652e-005 to 4.20662e-005
Heightened Def Con from 4.3288e-005 to 4.32911e-005
Heightened Def Con from 4.32912e-005 to 4.33122e-005
Heightened Def Con from 4.45118e-005 to 4.45149e-005
Heightened Def Con from 4.45151e-005 to 4.45361e-005
Heightened Def Con from 4.57347e-005 to 4.57378e-005
Heightened Def Con from 4.5738e-005 to 4.5759e-005
Heightened Def Con from 4.69584e-005 to 4.69615e-005
Heightened Def Con from 4.69617e-005 to 4.69827e-005
Heightened Def Con from 4.81818e-005 to 4.8185e-005
Heightened Def Con from 4.81851e-005 to 4.81863e-005
Heightened Def Con from 4.94039e-005 to 4.9407e-005
Heightened Def Con from 4.94072e-005 to 4.94083e-005
Heightened Def Con from 5.06257e-005 to 5.06288e-005
Heightened Def Con from 5.0629e-005 to 5.065e-005
Heightened Def Con from 5.18477e-005 to 5.18508e-005
Heightened Def Con from 5.1851e-005 to 5.1872e-005
Heightened Def Con from 5.30694e-005 to 5.30725e-005
Heightened Def Con from 5.30727e-005 to 5.30738e-005
Heightened Def Con from 5.42905e-005 to 5.42937e-005
Heightened Def Con from 5.42938e-005 to 5.43148e-005
Heightened Def Con from 5.55112e-005 to 5.55143e-005
Heightened Def Con from 5.55145e-005 to 5.55355e-005
Heightened Def Con from 5.67317e-005 to 5.67348e-005
Heightened Def Con from 5.6735e-005 to 5.6756e-005
Heightened Def Con from 5.79508e-005 to 5.79512e-005
Heightened Def Con from 5.79517e-005 to 5.79549e-005
Heightened Def Con from 5.7955e-005 to 5.7976e-005
Heightened Def Con from 5.91721e-005 to 5.91752e-005
Heightened Def Con from 5.91754e-005 to 5.91964e-005
Heightened Def Con from 6.03923e-005 to 6.03954e-005
Heightened Def Con from 6.03956e-005 to 6.04166e-005
Heightened Def Con from 6.16155e-005 to 6.16165e-005
Heightened Def Con from 6.28343e-005 to 6.28375e-005
Heightened Def Con from 6.28376e-005 to 6.28586e-005
Heightened Def Con from 6.4054e-005 to 6.40552e-005
Heightened Def Con from 6.4057e-005 to 6.40573e-005
Heightened Def Con from 6.52771e-005 to 6.52803e-005
Heightened Def Con from 6.52804e-005 to 6.53014e-005
Heightened Def Con from 6.6496e-005 to 6.64964e-005
Heightened Def Con from 6.64969e-005 to 6.65e-005
Heightened Def Con from 6.65002e-005 to 6.65212e-005
Heightened Def Con from 6.77159e-005 to 6.7719e-005
Heightened Def Con from 6.77191e-005 to 6.77401e-005
Heightened Def Con from 6.89345e-005 to 6.89377e-005
Heightened Def Con from 6.89378e-005 to 6.89588e-005
Heightened Def Con from 7.01537e-005 to 7.01568e-005
Heightened Def Con from 7.0157e-005 to 7.0178e-005
Heightened Def Con from 7.13727e-005 to 7.13758e-005
Heightened Def Con from 7.1376e-005 to 7.13771e-005
Heightened Def Con from 7.25922e-005 to 7.25954e-005
Heightened Def Con from 7.25955e-005 to 7.26165e-005
Heightened Def Con from 7.38101e-005 to 7.38132e-005
Heightened Def Con from 7.38134e-005 to 7.38344e-005
Heightened Def Con from 7.50278e-005 to 7.50309e-005
Heightened Def Con from 7.50311e-005 to 7.50322e-005
Heightened Def Con from 7.6247e-005 to 7.62501e-005
Heightened Def Con from 7.62502e-005 to 7.62712e-005
Heightened Def Con from 7.74645e-005 to 7.74676e-005
Heightened Def Con from 7.74678e-005 to 7.74888e-005
Heightened Def Con from 7.86825e-005 to 7.86857e-005
Heightened Def Con from 7.86858e-005 to 7.87068e-005
Heightened Def Con from 7.98995e-005 to 7.99026e-005
Heightened Def Con from 7.99028e-005 to 7.99039e-005
Heightened Def Con from 8.11176e-005 to 8.11207e-005
Heightened Def Con from 8.11209e-005 to 8.1122e-005
Heightened Def Con from 8.2336e-005 to 8.23391e-005
Heightened Def Con from 8.23392e-005 to 8.23404e-005
Heightened Def Con from 8.3554e-005 to 8.35571e-005
Heightened Def Con from 8.35572e-005 to 8.35584e-005
Heightened Def Con from 8.47712e-005 to 8.47743e-005
Heightened Def Con from 8.47744e-005 to 8.47756e-005
Heightened Def Con from 8.59893e-005 to 8.59924e-005
Heightened Def Con from 8.59926e-005 to 8.60136e-005
Heightened Def Con from 8.72075e-005 to 8.72106e-005
Heightened Def Con from 8.72107e-005 to 8.72119e-005
Heightened Def Con from 8.84244e-005 to 8.84247e-005
Heightened Def Con from 8.84253e-005 to 8.84284e-005
Heightened Def Con from 8.84286e-005 to 8.84496e-005
Heightened Def Con from 8.96425e-005 to 8.96456e-005
Heightened Def Con from 8.96458e-005 to 8.96668e-005
Heightened Def Con from 9.08629e-005 to 9.08632e-005
Heightened Def Con from 9.20788e-005 to 9.20819e-005
Heightened Def Con from 9.20821e-005 to 9.21031e-005
Heightened Def Con from 9.3296e-005 to 9.32991e-005
Heightened Def Con from 9.32993e-005 to 9.33203e-005
Heightened Def Con from 9.45132e-005 to 9.45163e-005
Heightened Def Con from 9.45165e-005 to 9.45375e-005
Heightened Def Con from 9.57315e-005 to 9.57346e-005
Heightened Def Con from 9.57348e-005 to 9.57558e-005
Heightened Def Con from 9.69481e-005 to 9.69512e-005
Heightened Def Con from 9.69514e-005 to 9.69724e-005
Heightened Def Con from 9.81651e-005 to 9.81683e-005
Heightened Def Con from 9.81684e-005 to 9.81894e-005
Heightened Def Con from 9.93817e-005 to 9.93848e-005
Heightened Def Con from 9.9385e-005 to 9.9406e-005
Heightened Def Con from 0.000100599 to 0.000100602
Heightened Def Con from 0.000100602 to 0.000100603
Heightened Def Con from 0.000101816 to 0.000101819
Heightened Def Con from 0.00010182 to 0.000101841
Heightened Def Con from 0.000103032 to 0.000103036
Heightened Def Con from 0.000103036 to 0.000103057
Heightened Def Con from 0.000104249 to 0.000104249
Heightened Def Con from 0.00010425 to 0.000104253
Heightened Def Con from 0.000104253 to 0.000104254
Heightened Def Con from 0.000105467 to 0.00010547
Heightened Def Con from 0.00010547 to 0.000105491
Heightened Def Con from 0.000106684 to 0.000106687
Heightened Def Con from 0.000106687 to 0.000106708
Heightened Def Con from 0.000107901 to 0.000107904
Heightened Def Con from 0.000107904 to 0.000107925
Heightened Def Con from 0.000109118 to 0.000109121
Heightened Def Con from 0.000109121 to 0.000109142
Heightened Def Con from 0.000110335 to 0.000110338
Heightened Def Con from 0.000110338 to 0.000110359
Heightened Def Con from 0.000111551 to 0.000111551
Heightened Def Con from 0.000111551 to 0.000111555
Heightened Def Con from 0.000111555 to 0.000111576
Heightened Def Con from 0.000112768 to 0.000112771
Heightened Def Con from 0.000112771 to 0.000112792
Heightened Def Con from 0.000113985 to 0.000113988
Heightened Def Con from 0.000113989 to 0.00011401
Heightened Def Con from 0.000115204 to 0.000115207
Heightened Def Con from 0.000115207 to 0.000115228
Heightened Def Con from 0.00011642 to 0.000116421
Heightened Def Con from 0.000116424 to 0.000116425
Heightened Def Con from 0.000117643 to 0.000117646
Heightened Def Con from 0.000117646 to 0.000117667
Heightened Def Con from 0.000118859 to 0.000118862
Heightened Def Con from 0.000118862 to 0.000118883
Heightened Def Con from 0.000120076 to 0.000120079
Heightened Def Con from 0.000120079 to 0.0001201
Heightened Def Con from 0.000121292 to 0.000121295
Heightened Def Con from 0.000121295 to 0.000121296
Heightened Def Con from 0.000122509 to 0.000122512
Heightened Def Con from 0.000122512 to 0.000122533
Heightened Def Con from 0.000123725 to 0.000123726
Heightened Def Con from 0.000123729 to 0.00012373
Heightened Def Con from 0.000124948 to 0.000124951
Heightened Def Con from 0.000124951 to 0.000124952
Heightened Def Con from 0.000126164 to 0.000126167
Heightened Def Con from 0.000126168 to 0.000126189
Heightened Def Con from 0.000127381 to 0.000127382
Heightened Def Con from 0.000127382 to 0.000127385
Heightened Def Con from 0.000127385 to 0.000127406
Heightened Def Con from 0.000128599 to 0.000128602
Heightened Def Con from 0.000128602 to 0.000128623
Heightened Def Con from 0.000129816 to 0.000129819
Heightened Def Con from 0.000129819 to 0.00012984
Heightened Def Con from 0.000131032 to 0.000131032
Heightened Def Con from 0.000131033 to 0.000131036
Heightened Def Con from 0.000131036 to 0.000131057
Heightened Def Con from 0.00013225 to 0.000132253
Heightened Def Con from 0.000132253 to 0.000132274
Heightened Def Con from 0.000133466 to 0.000133467
Heightened Def Con from 0.00013347 to 0.00013347
Heightened Def Con from 0.000134689 to 0.000134692
Heightened Def Con from 0.000134692 to 0.000134713
Heightened Def Con from 0.000135906 to 0.000135909
Heightened Def Con from 0.000135909 to 0.00013593
Heightened Def Con from 0.000137121 to 0.000137122
Heightened Def Con from 0.000137125 to 0.000137126
Heightened Def Con from 0.000138343 to 0.000138347
Heightened Def Con from 0.000138347 to 0.000138368
Heightened Def Con from 0.00013956 to 0.000139563
Heightened Def Con from 0.000139563 to 0.000139584
Heightened Def Con from 0.000140777 to 0.000140781
Heightened Def Con from 0.000140781 to 0.000140782
Heightened Def Con from 0.000141994 to 0.000141997
Heightened Def Con from 0.000141997 to 0.000142018
Heightened Def Con from 0.000143211 to 0.000143214
Heightened Def Con from 0.000143214 to 0.000143235
Heightened Def Con from 0.000144427 to 0.000144428
Heightened Def Con from 0.000144428 to 0.000144431
Heightened Def Con from 0.000144431 to 0.000144452
Heightened Def Con from 0.000145645 to 0.000145648
Heightened Def Con from 0.000145648 to 0.000145669
Heightened Def Con from 0.00014686 to 0.000146861
Heightened Def Con from 0.000146864 to 0.000146864
Heightened Def Con from 0.000148081 to 0.000148082
Heightened Def Con from 0.000148085 to 0.000148086
Heightened Def Con from 0.000149301 to 0.000149302
Heightened Def Con from 0.000150516 to 0.000150519
Heightened Def Con from 0.000150519 to 0.000150521
Heightened Def Con from 0.000151733 to 0.000151734
Heightened Def Con from 0.000151737 to 0.000151737
Heightened Def Con from 0.000152953 to 0.000152956
Heightened Def Con from 0.000152956 to 0.000152977
Heightened Def Con from 0.000154169 to 0.00015417
Heightened Def Con from 0.000154173 to 0.000154174
Heightened Def Con from 0.000155392 to 0.000155395
Heightened Def Con from 0.000155395 to 0.000155416
Heightened Def Con from 0.000156609 to 0.00015661
Heightened Def Con from 0.000156613 to 0.000156634
Heightened Def Con from 0.000157832 to 0.000157835
Heightened Def Con from 0.000157835 to 0.000157856
Heightened Def Con from 0.000159047 to 0.000159049
Heightened Def Con from 0.000159051 to 0.000159052
Heightened Def Con from 0.000160264 to 0.000160264
Heightened Def Con from 0.000160265 to 0.000160268
Heightened Def Con from 0.000160268 to 0.000160289
Heightened Def Con from 0.000161482 to 0.000161485
Heightened Def Con from 0.000161485 to 0.000161506
Heightened Def Con from 0.000162699 to 0.000162702
Heightened Def Con from 0.000162702 to 0.000162723
Heightened Def Con from 0.000163917 to 0.00016392
Heightened Def Con from 0.00016392 to 0.000163941
Heightened Def Con from 0.000165133 to 0.000165134
Heightened Def Con from 0.000165137 to 0.000165137
Heightened Def Con from 0.000166355 to 0.000166356
Heightened Def Con from 0.000166358 to 0.000166359
Heightened Def Con from 0.000166359 to 0.000166359
Heightened Def Con from 0.000167578 to 0.000167581
Heightened Def Con from 0.000167581 to 0.000167602
Heightened Def Con from 0.000168794 to 0.000168798
Heightened Def Con from 0.000168798 to 0.000168799
Heightened Def Con from 0.000170012 to 0.000170015
Heightened Def Con from 0.000170015 to 0.000170036
Heightened Def Con from 0.000171229 to 0.000171232
Heightened Def Con from 0.000171232 to 0.000171253
Heightened Def Con from 0.000172446 to 0.00017245
Heightened Def Con from 0.00017245 to 0.000172471
Heightened Def Con from 0.000173663 to 0.000173666
Heightened Def Con from 0.000173667 to 0.000173668
Heightened Def Con from 0.000174882 to 0.000174885
Heightened Def Con from 0.000174885 to 0.000174906
Heightened Def Con from 0.000176099 to 0.000176103
Heightened Def Con from 0.000176103 to 0.000176124
Heightened Def Con from 0.000177317 to 0.00017732
Heightened Def Con from 0.00017732 to 0.000177321
Heightened Def Con from 0.000178534 to 0.000178537
Heightened Def Con from 0.000178538 to 0.000178559
Heightened Def Con from 0.000179752 to 0.000179755
Heightened Def Con from 0.000179755 to 0.000179776
Heightened Def Con from 0.000180968 to 0.000180969
Heightened Def Con from 0.000180972 to 0.000180973
Heightened Def Con from 0.000182192 to 0.000182195
Heightened Def Con from 0.000182195 to 0.000182196
Heightened Def Con from 0.000183409 to 0.000183412
Heightened Def Con from 0.000183412 to 0.000183413
Heightened Def Con from 0.000184626 to 0.000184629
Heightened Def Con from 0.000184629 to 0.00018465
Heightened Def Con from 0.000185844 to 0.000185847
Heightened Def Con from 0.000185847 to 0.000185848
Heightened Def Con from 0.000187061 to 0.000187064
Heightened Def Con from 0.000187065 to 0.000187086
Heightened Def Con from 0.000188279 to 0.000188282
Heightened Def Con from 0.000188282 to 0.000188303
Heightened Def Con from 0.000189497 to 0.0001895
Heightened Def Con from 0.0001895 to 0.000189521
Heightened Def Con from 0.000190715 to 0.000190718
Heightened Def Con from 0.000190718 to 0.000190739
Heightened Def Con from 0.000191932 to 0.000191935
Heightened Def Con from 0.000191935 to 0.000191956
Heightened Def Con from 0.000193149 to 0.000193152
Heightened Def Con from 0.000193152 to 0.000193154
Heightened Def Con from 0.000194366 to 0.000194367
Heightened Def Con from 0.00019437 to 0.00019437
Heightened Def Con from 0.000195589 to 0.000195592
Heightened Def Con from 0.000195593 to 0.000195594
Heightened Def Con from 0.000196806 to 0.000196809
Heightened Def Con from 0.00019681 to 0.000196831
Heightened Def Con from 0.000198023 to 0.000198024
Heightened Def Con from 0.000198027 to 0.000198027
Heightened Def Con from 0.000199246 to 0.000199249
Heightened Def Con from 0.000199249 to 0.00019925
Heightened Def Con from 0.000200464 to 0.000200468
Heightened Def Con from 0.000200468 to 0.000200489
Heightened Def Con from 0.000201681 to 0.000201684
Heightened Def Con from 0.000201685 to 0.000201686
Heightened Def Con from 0.0002029 to 0.000202903
Heightened Def Con from 0.000202903 to 0.000202924
Heightened Def Con from 0.000204118 to 0.000204121
Heightened Def Con from 0.000204121 to 0.000204142
Heightened Def Con from 0.000205336 to 0.000205339
Heightened Def Con from 0.000205339 to 0.00020536
Heightened Def Con from 0.000206554 to 0.000206557
Heightened Def Con from 0.000206557 to 0.000206558
Heightened Def Con from 0.000207772 to 0.000207775
Heightened Def Con from 0.000207775 to 0.000207796
Heightened Def Con from 0.00020899 to 0.000208993
Heightened Def Con from 0.000208993 to 0.000209014
Heightened Def Con from 0.000210209 to 0.000210212
Heightened Def Con from 0.000210212 to 0.000210233
Heightened Def Con from 0.000211426 to 0.000211427
Heightened Def Con from 0.00021143 to 0.00021143
Heightened Def Con from 0.00021265 to 0.000212653
Heightened Def Con from 0.000212653 to 0.000212654
Heightened Def Con from 0.00021387 to 0.00021387
Heightened Def Con from 0.000215087 to 0.00021509
Heightened Def Con from 0.00021509 to 0.000215111
Heightened Def Con from 0.000216304 to 0.000216308
Heightened Def Con from 0.000216308 to 0.000216329
Heightened Def Con from 0.000217522 to 0.000217523
Heightened Def Con from 0.000217525 to 0.000217525
Heightened Def Con from 0.000218744 to 0.000218747
Heightened Def Con from 0.000218747 to 0.000218768
Heightened Def Con from 0.000219962 to 0.000219965
Heightened Def Con from 0.000219966 to 0.000219967
Heightened Def Con from 0.000221184 to 0.000221184
Heightened Def Con from 0.000222399 to 0.000222402
Heightened Def Con from 0.000222403 to 0.000222424
Heightened Def Con from 0.000223617 to 0.000223621
Heightened Def Con from 0.000223621 to 0.000223642
Heightened Def Con from 0.000224836 to 0.000224839
Heightened Def Con from 0.000224839 to 0.00022486
Heightened Def Con from 0.000226054 to 0.000226058
Heightened Def Con from 0.000226058 to 0.000226079
Heightened Def Con from 0.000227271 to 0.000227272
Heightened Def Con from 0.000227272 to 0.000227275
Heightened Def Con from 0.000227276 to 0.000227297
Heightened Def Con from 0.00022849 to 0.000228493
Heightened Def Con from 0.000228493 to 0.000228514
Heightened Def Con from 0.000229709 to 0.000229712
Heightened Def Con from 0.000229712 to 0.000229733
Heightened Def Con from 0.000230929 to 0.000230932
Heightened Def Con from 0.000230932 to 0.000230953
Heightened Def Con from 0.000232147 to 0.00023215
Heightened Def Con from 0.000232151 to 0.000232152
Heightened Def Con from 0.000233366 to 0.000233369
Heightened Def Con from 0.000233369 to 0.00023339
Heightened Def Con from 0.000234584 to 0.000234585
Heightened Def Con from 0.000234588 to 0.000234588
Heightened Def Con from 0.000235807 to 0.000235811
Heightened Def Con from 0.000235811 to 0.000235832
Heightened Def Con from 0.000237026 to 0.000237029
Heightened Def Con from 0.000237029 to 0.00023705
Heightened Def Con from 0.000238244 to 0.000238244
Heightened Def Con from 0.000238245 to 0.000238248
Heightened Def Con from 0.000238248 to 0.000238269
Heightened Def Con from 0.000239463 to 0.000239466
Heightened Def Con from 0.000239466 to 0.000239487
Heightened Def Con from 0.000240682 to 0.000240685
Heightened Def Con from 0.000240685 to 0.000240706
Heightened Def Con from 0.000241902 to 0.000241905
Heightened Def Con from 0.000241905 to 0.000241926
Heightened Def Con from 0.000243121 to 0.000243124
Heightened Def Con from 0.000243124 to 0.000243145
Heightened Def Con from 0.000244339 to 0.00024434
Heightened Def Con from 0.000244343 to 0.000244343
Heightened Def Con from 0.000245563 to 0.000245566
Heightened Def Con from 0.000245566 to 0.000245567
Heightened Def Con from 0.00024678 to 0.000246783
Heightened Def Con from 0.000246783 to 0.000246785
Heightened Def Con from 0.000247999 to 0.000248002
Heightened Def Con from 0.000248002 to 0.000248003
Heightened Def Con from 0.000249217 to 0.00024922
Heightened Def Con from 0.00024922 to 0.000249241
Heightened Def Con from 0.000250433 to 0.000250437
Heightened Def Con from 0.000250437 to 0.000250458
Heightened Def Con from 0.000251652 to 0.000251655
Heightened Def Con from 0.000251656 to 0.000251657
Heightened Def Con from 0.000252871 to 0.000252874
Heightened Def Con from 0.000252875 to 0.000252896
Heightened Def Con from 0.000254091 to 0.000254092
Heightened Def Con from 0.000254094 to 0.000254115
Heightened Def Con from 0.000255314 to 0.000255315
Heightened Def Con from 0.000255317 to 0.000255318
Heightened Def Con from 0.000255319 to 0.000255337
Heightened Def Con from 0.000256537 to 0.00025654
Heightened Def Con from 0.00025654 to 0.000256541
Heightened Def Con from 0.000257756 to 0.000257759
Heightened Def Con from 0.000257759 to 0.00025778
Heightened Def Con from 0.000258975 to 0.000258978
Heightened Def Con from 0.000258978 to 0.00025898
Heightened Def Con from 0.000260193 to 0.000260195
Heightened Def Con from 0.000260197 to 0.000260198
Heightened Def Con from 0.000261418 to 0.000261421
Heightened Def Con from 0.000261421 to 0.000261442
Heightened Def Con from 0.000262637 to 0.00026264
Heightened Def Con from 0.00026264 to 0.000262661
Heightened Def Con from 0.000263855 to 0.000263855
Heightened Def Con from 0.000263856 to 0.000263859
Heightened Def Con from 0.000263859 to 0.00026388
Heightened Def Con from 0.000265075 to 0.000265078
Heightened Def Con from 0.000265078 to 0.000265099
Heightened Def Con from 0.000266294 to 0.000266297
Heightened Def Con from 0.000266297 to 0.000266318
Heightened Def Con from 0.000267512 to 0.000267513
Heightened Def Con from 0.000267513 to 0.000267516
Heightened Def Con from 0.000267517 to 0.000267538
Heightened Def Con from 0.000268732 to 0.000268735
Heightened Def Con from 0.000268736 to 0.000268757
Heightened Def Con from 0.000269951 to 0.000269954
Heightened Def Con from 0.000269955 to 0.000269976
Heightened Def Con from 0.000271171 to 0.000271174
Heightened Def Con from 0.000271174 to 0.000271195
Heightened Def Con from 0.000272389 to 0.00027239
Heightened Def Con from 0.000272393 to 0.000272394
Heightened Def Con from 0.000273613 to 0.000273613
Heightened Def Con from 0.000273614 to 0.000273617
Heightened Def Con from 0.000273617 to 0.000273638
Heightened Def Con from 0.000274833 to 0.000274836
Heightened Def Con from 0.000274836 to 0.000274857
Heightened Def Con from 0.000276052 to 0.000276055
Heightened Def Con from 0.000276055 to 0.000276076
Heightened Def Con from 0.000277271 to 0.000277274
Heightened Def Con from 0.000277274 to 0.000277295
Heightened Def Con from 0.000278491 to 0.000278494
Heightened Def Con from 0.000278494 to 0.000278515
Heightened Def Con from 0.000279711 to 0.000279714
Heightened Def Con from 0.000279714 to 0.000279735
Heightened Def Con from 0.000280931 to 0.000280934
Heightened Def Con from 0.000280934 to 0.000280955
Heightened Def Con from 0.000282151 to 0.000282154
Heightened Def Con from 0.000282154 to 0.000282175
Heightened Def Con from 0.000283372 to 0.000283375
Heightened Def Con from 0.000283375 to 0.000283396
Heightened Def Con from 0.000284592 to 0.000284595
Heightened Def Con from 0.000284595 to 0.000284616
Heightened Def Con from 0.000285815 to 0.000285816
Heightened Def Con from 0.000287034 to 0.000287037
Heightened Def Con from 0.000287037 to 0.000287058
Heightened Def Con from 0.000288253 to 0.000288257
Heightened Def Con from 0.000288257 to 0.000288278
Heightened Def Con from 0.000289473 to 0.000289474
Heightened Def Con from 0.000289476 to 0.000289477
Heightened Def Con from 0.000290698 to 0.000290701
Heightened Def Con from 0.000290701 to 0.000290722
Heightened Def Con from 0.000291918 to 0.000291921
Heightened Def Con from 0.000291921 to 0.000291942
Heightened Def Con from 0.000293138 to 0.000293141
Heightened Def Con from 0.000293141 to 0.000293162
Heightened Def Con from 0.000294358 to 0.000294361
Heightened Def Con from 0.000294361 to 0.000294382
Heightened Def Con from 0.000295577 to 0.000295578
Heightened Def Con from 0.000295578 to 0.00029558
Heightened Def Con from 0.00029558 to 0.000295582
Heightened Def Con from 0.000295582 to 0.000295583
Heightened Def Con from 0.000296804 to 0.000296807
Heightened Def Con from 0.000296807 to 0.000296828
Heightened Def Con from 0.000298023 to 0.000298026
Heightened Def Con from 0.000298026 to 0.000298047
Heightened Def Con from 0.000299243 to 0.000299246
Heightened Def Con from 0.000299246 to 0.000299267
Heightened Def Con from 0.000300463 to 0.000300466
Heightened Def Con from 0.000300466 to 0.000300467
Heightened Def Con from 0.000301686 to 0.000301686
Heightened Def Con from 0.000302905 to 0.000302908
Heightened Def Con from 0.000302909 to 0.00030293
Heightened Def Con from 0.000304125 to 0.000304128
Heightened Def Con from 0.000304129 to 0.00030415
Heightened Def Con from 0.000305345 to 0.000305349
Heightened Def Con from 0.000305349 to 0.00030535
Heightened Def Con from 0.000306566 to 0.000306567
Heightened Def Con from 0.00030657 to 0.000306571
Heightened Def Con from 0.000307791 to 0.000307794
Heightened Def Con from 0.000307794 to 0.000307815
Heightened Def Con from 0.000309011 to 0.000309014
Heightened Def Con from 0.000309014 to 0.000309035
Heightened Def Con from 0.000310232 to 0.000310235
Heightened Def Con from 0.000310235 to 0.000310256
Heightened Def Con from 0.000311453 to 0.000311456
Heightened Def Con from 0.000311456 to 0.000311457
Heightened Def Con from 0.000312674 to 0.000312677
Heightened Def Con from 0.000312678 to 0.000312699
Heightened Def Con from 0.000313895 to 0.000313897
Heightened Def Con from 0.000313898 to 0.000313898
Heightened Def Con from 0.000313898 to 0.000313899
Heightened Def Con from 0.000315122 to 0.000315125
Heightened Def Con from 0.000315125 to 0.000315146
Heightened Def Con from 0.000316342 to 0.000316346
Heightened Def Con from 0.000316346 to 0.000316347
Heightened Def Con from 0.000317562 to 0.000317562
Heightened Def Con from 0.000317563 to 0.000317566
Heightened Def Con from 0.000317566 to 0.000317587
Heightened Def Con from 0.000318782 to 0.000318783
Heightened Def Con from 0.000318783 to 0.000318786
Heightened Def Con from 0.000318787 to 0.000318788
Heightened Def Con from 0.000320004 to 0.000320007
Heightened Def Con from 0.000320007 to 0.000320028
Heightened Def Con from 0.000321225 to 0.000321228
Heightened Def Con from 0.000321228 to 0.000321249
Heightened Def Con from 0.000322444 to 0.000322445
Heightened Def Con from 0.000322448 to 0.000322448
Heightened Def Con from 0.00032367 to 0.000323673
Heightened Def Con from 0.000323674 to 0.000323695
Heightened Def Con from 0.000324892 to 0.000324895
Heightened Def Con from 0.000324895 to 0.000324896
Heightened Def Con from 0.000326113 to 0.000326116
Heightened Def Con from 0.000326116 to 0.000326137
Heightened Def Con from 0.000327333 to 0.000327334
Heightened Def Con from 0.000327337 to 0.000327338
Heightened Def Con from 0.000328559 to 0.000328562
Heightened Def Con from 0.000328563 to 0.000328584
Heightened Def Con from 0.000329783 to 0.000329804
Heightened Def Con from 0.000331001 to 0.000331002
Heightened Def Con from 0.000331002 to 0.000331005
Heightened Def Con from 0.000331006 to 0.000331027
Heightened Def Con from 0.000332222 to 0.000332223
Heightened Def Con from 0.000332226 to 0.000332227
Heightened Def Con from 0.000333446 to 0.000333449
Heightened Def Con from 0.000333449 to 0.00033347
Heightened Def Con from 0.000334667 to 0.00033467
Heightened Def Con from 0.00033467 to 0.000334672
Heightened Def Con from 0.000335886 to 0.000335886
Heightened Def Con from 0.000335887 to 0.00033589
Heightened Def Con from 0.00033589 to 0.000335891
Heightened Def Con from 0.000337108 to 0.000337111
Heightened Def Con from 0.000337111 to 0.000337132
Heightened Def Con from 0.000338328 to 0.000338332
Heightened Def Con from 0.000338332 to 0.000338353
Heightened Def Con from 0.00033955 to 0.000339553
Heightened Def Con from 0.000339553 to 0.000339574
Heightened Def Con from 0.000340775 to 0.000340775
Heightened Def Con from 0.000341995 to 0.000341998
Heightened Def Con from 0.000341999 to 0.00034202
Heightened Def Con from 0.000343216 to 0.000343216
Heightened Def Con from 0.000343217 to 0.00034322
Heightened Def Con from 0.00034322 to 0.000343241
Heightened Def Con from 0.000344438 to 0.000344441
Heightened Def Con from 0.000344441 to 0.000344462
Heightened Def Con from 0.000345661 to 0.000345664
Heightened Def Con from 0.000345664 to 0.000345665
Heightened Def Con from 0.000346883 to 0.000346886
Heightened Def Con from 0.000346886 to 0.000346907
Heightened Def Con from 0.000348105 to 0.000348108
Heightened Def Con from 0.000348108 to 0.000348129
Heightened Def Con from 0.000349329 to 0.00034933
Heightened Def Con from 0.000350551 to 0.000350554
Heightened Def Con from 0.000350554 to 0.000350575
Heightened Def Con from 0.000351772 to 0.000351775
Heightened Def Con from 0.000351775 to 0.000351796
Heightened Def Con from 0.000352994 to 0.000352997
Heightened Def Con from 0.000352997 to 0.000353018
Heightened Def Con from 0.000354216 to 0.000354219
Heightened Def Con from 0.00035422 to 0.000354241
Heightened Def Con from 0.000355437 to 0.000355438
Heightened Def Con from 0.000355441 to 0.000355442
Heightened Def Con from 0.000356664 to 0.000356668
Heightened Def Con from 0.000356668 to 0.000356689
Heightened Def Con from 0.000357887 to 0.00035789
Heightened Def Con from 0.00035789 to 0.000357911
Heightened Def Con from 0.000359109 to 0.000359112
Heightened Def Con from 0.000359113 to 0.000359134
Heightened Def Con from 0.000360332 to 0.000360335
Heightened Def Con from 0.000360335 to 0.000360337
Heightened Def Con from 0.000361554 to 0.000361557
Heightened Def Con from 0.000361557 to 0.000361578
Heightened Def Con from 0.000362774 to 0.000362775
Heightened Def Con from 0.000362778 to 0.000362779
Heightened Def Con from 0.000364004 to 0.000364004
Heightened Def Con from 0.000364004 to 0.000364025
Heightened Def Con from 0.000365224 to 0.000365227
Heightened Def Con from 0.000365228 to 0.000365249
Heightened Def Con from 0.000366446 to 0.00036645
Heightened Def Con from 0.00036645 to 0.000366471
Heightened Def Con from 0.000367668 to 0.000367669
Heightened Def Con from 0.000367672 to 0.000367672
Heightened Def Con from 0.000368895 to 0.000368898
Heightened Def Con from 0.000368898 to 0.000368919
Heightened Def Con from 0.000370117 to 0.00037012
Heightened Def Con from 0.00037012 to 0.000370141
Heightened Def Con from 0.000371338 to 0.000371338
Heightened Def Con from 0.000371339 to 0.000371342
Heightened Def Con from 0.000371342 to 0.000371363
Heightened Def Con from 0.00037256 to 0.000372561
Heightened Def Con from 0.000372564 to 0.000372564
Heightened Def Con from 0.000373787 to 0.00037379
Heightened Def Con from 0.00037379 to 0.000373811
Heightened Def Con from 0.000375009 to 0.000375012
Heightened Def Con from 0.000375012 to 0.000375013
Heightened Def Con from 0.000376232 to 0.000376235
Heightened Def Con from 0.000376235 to 0.000376256
Heightened Def Con from 0.000377454 to 0.000377457
Heightened Def Con from 0.000377457 to 0.000377478
Heightened Def Con from 0.000378676 to 0.000378679
Heightened Def Con from 0.00037868 to 0.000378701
Heightened Def Con from 0.000379898 to 0.000379899
Heightened Def Con from 0.000379902 to 0.000379903
Heightened Def Con from 0.000381124 to 0.000381127
Heightened Def Con from 0.000381127 to 0.000381129
Heightened Def Con from 0.000382345 to 0.000382346
Heightened Def Con from 0.000382346 to 0.000382349
Heightened Def Con from 0.000382349 to 0.000382351
Heightened Def Con from 0.000383568 to 0.000383569
Heightened Def Con from 0.000383572 to 0.000383572
Heightened Def Con from 0.000384795 to 0.000384798
Heightened Def Con from 0.000384798 to 0.000384819
Heightened Def Con from 0.000386019 to 0.000386019
Heightened Def Con from 0.00038724 to 0.000387241
Heightened Def Con from 0.000387244 to 0.000387245
Heightened Def Con from 0.000388468 to 0.000388471
Heightened Def Con from 0.000388471 to 0.000388492
Heightened Def Con from 0.00038969 to 0.00038969
Heightened Def Con from 0.000389691 to 0.000389694
Heightened Def Con from 0.000389694 to 0.000389715
Heightened Def Con from 0.000390914 to 0.000390917
Heightened Def Con from 0.000390917 to 0.000390918
Heightened Def Con from 0.000392137 to 0.00039214
Heightened Def Con from 0.00039214 to 0.000392141
Heightened Def Con from 0.00039336 to 0.000393363
Heightened Def Con from 0.000393363 to 0.000393384
Heightened Def Con from 0.000394584 to 0.000394585
Heightened Def Con from 0.000394587 to 0.000394588
Heightened Def Con from 0.000394588 to 0.000394609
Heightened Def Con from 0.000395811 to 0.000395814
Heightened Def Con from 0.000395815 to 0.000395836
Heightened Def Con from 0.000397034 to 0.000397034
Heightened Def Con from 0.000397034 to 0.000397038
Heightened Def Con from 0.000397038 to 0.000397059
Heightened Def Con from 0.000398257 to 0.000398261
Heightened Def Con from 0.000398261 to 0.000398282
Heightened Def Con from 0.00039948 to 0.000399483
Heightened Def Con from 0.000399483 to 0.000399504
Heightened Def Con from 0.000400703 to 0.000400706
Heightened Def Con from 0.000400706 to 0.000400727
Heightened Def Con from 0.000401926 to 0.000401929
Heightened Def Con from 0.000401929 to 0.00040195
Heightened Def Con from 0.000403149 to 0.000403152
Heightened Def Con from 0.000403152 to 0.000403173
Heightened Def Con from 0.000404371 to 0.000404371
Heightened Def Con from 0.000404372 to 0.000404375
Heightened Def Con from 0.000404375 to 0.000404396
Heightened Def Con from 0.000405595 to 0.000405598
Heightened Def Con from 0.000405598 to 0.000405599
Heightened Def Con from 0.000406818 to 0.000406822
Heightened Def Con from 0.000406822 to 0.000406843
Heightened Def Con from 0.000408041 to 0.000408044
Heightened Def Con from 0.000408045 to 0.000408046
Heightened Def Con from 0.000409264 to 0.000409265
Heightened Def Con from 0.000409268 to 0.000409268
Heightened Def Con from 0.000410495 to 0.000410496
Heightened Def Con from 0.000411722 to 0.000411743
Heightened Def Con from 0.000412943 to 0.000412946
Heightened Def Con from 0.000412946 to 0.000412948
Heightened Def Con from 0.000414167 to 0.00041417
Heightened Def Con from 0.00041417 to 0.000414171
Heightened Def Con from 0.00041539 to 0.000415393
Heightened Def Con from 0.000415393 to 0.000415414
Heightened Def Con from 0.000416614 to 0.000416617
Heightened Def Con from 0.000416617 to 0.000416638
Heightened Def Con from 0.000417838 to 0.000417841
Heightened Def Con from 0.000417841 to 0.000417862
Heightened Def Con from 0.00041906 to 0.000419061
Heightened Def Con from 0.000419061 to 0.000419064
Heightened Def Con from 0.000419065 to 0.000419066
Heightened Def Con from 0.000420285 to 0.000420288
Heightened Def Con from 0.000420288 to 0.000420309
Heightened Def Con from 0.000421509 to 0.000421512
Heightened Def Con from 0.000421512 to 0.000421533
Heightened Def Con from 0.000422732 to 0.000422735
Heightened Def Con from 0.000422736 to 0.000422757
Heightened Def Con from 0.000423956 to 0.000423959
Heightened Def Con from 0.000423959 to 0.00042398
Heightened Def Con from 0.000425179 to 0.000425179
Heightened Def Con from 0.000425179 to 0.000425183
Heightened Def Con from 0.000425183 to 0.000425204
Heightened Def Con from 0.000426406 to 0.000426407
Heightened Def Con from 0.000427628 to 0.000427629
Heightened Def Con from 0.000427632 to 0.000427633
Heightened Def Con from 0.000428856 to 0.000428857
Heightened Def Con from 0.00042886 to 0.000428881
Heightened Def Con from 0.000430083 to 0.000430086
Heightened Def Con from 0.000430086 to 0.000430107
Heightened Def Con from 0.000431306 to 0.000431307
Heightened Def Con from 0.000431307 to 0.00043131
Heightened Def Con from 0.00043131 to 0.000431312
Heightened Def Con from 0.000432531 to 0.000432534
Heightened Def Con from 0.000432535 to 0.000432556
Heightened Def Con from 0.000433756 to 0.000433759
Heightened Def Con from 0.000433759 to 0.00043378
Heightened Def Con from 0.000434979 to 0.000434982
Heightened Def Con from 0.000434983 to 0.000435004
Heightened Def Con from 0.000436202 to 0.000436203
Heightened Def Con from 0.000436206 to 0.000436206
Heightened Def Con from 0.000437431 to 0.000437434
Heightened Def Con from 0.000437434 to 0.000437435
Heightened Def Con from 0.000438655 to 0.000438658
Heightened Def Con from 0.000438658 to 0.000438679
Heightened Def Con from 0.000439879 to 0.000439882
Heightened Def Con from 0.000439882 to 0.000439903
Heightened Def Con from 0.000441103 to 0.000441106
Heightened Def Con from 0.000441106 to 0.000441127
Heightened Def Con from 0.000442327 to 0.000442328
Heightened Def Con from 0.000442331 to 0.000442331
Heightened Def Con from 0.000443555 to 0.000443558
Heightened Def Con from 0.000443558 to 0.000443579
Heightened Def Con from 0.000444778 to 0.000444778
Heightened Def Con from 0.000444779 to 0.000444782
Heightened Def Con from 0.000444782 to 0.000444783
Heightened Def Con from 0.000446003 to 0.000446006
Heightened Def Con from 0.000446006 to 0.000446027
Heightened Def Con from 0.000447231 to 0.000447232
Heightened Def Con from 0.000448454 to 0.000448458
Heightened Def Con from 0.000448458 to 0.000448479
Heightened Def Con from 0.000449687 to 0.000449687
Heightened Def Con from 0.000450915 to 0.000450916
Heightened Def Con from 0.000452139 to 0.000452142
Heightened Def Con from 0.000452142 to 0.000452163
Heightened Def Con from 0.000453363 to 0.000453366
Heightened Def Con from 0.000453366 to 0.000453387
Heightened Def Con from 0.000454588 to 0.000454591
Heightened Def Con from 0.000454591 to 0.000454612
Heightened Def Con from 0.000455813 to 0.000455816
Heightened Def Con from 0.000455816 to 0.000455837
Heightened Def Con from 0.000457038 to 0.000457041
Heightened Def Con from 0.000457041 to 0.000457042
Heightened Def Con from 0.000458263 to 0.000458266
Heightened Def Con from 0.000458266 to 0.000458287
Heightened Def Con from 0.000459488 to 0.000459492
Heightened Def Con from 0.000459492 to 0.000459513
Heightened Def Con from 0.000460713 to 0.000460716
Heightened Def Con from 0.000460717 to 0.000460718
Heightened Def Con from 0.000461939 to 0.000461942
Heightened Def Con from 0.000461942 to 0.000461963
Heightened Def Con from 0.000463165 to 0.000463168
Heightened Def Con from 0.000463168 to 0.000463169
Heightened Def Con from 0.000464389 to 0.00046439
Heightened Def Con from 0.000464393 to 0.000464393
Heightened Def Con from 0.000465618 to 0.000465618
Heightened Def Con from 0.000465619 to 0.000465622
Heightened Def Con from 0.000465622 to 0.000465643
Heightened Def Con from 0.000466843 to 0.000466844
Heightened Def Con from 0.000466847 to 0.000466848
Heightened Def Con from 0.000468072 to 0.000468075
Heightened Def Con from 0.000468075 to 0.000468096
Heightened Def Con from 0.000469297 to 0.0004693
Heightened Def Con from 0.000469301 to 0.000469302
Heightened Def Con from 0.000470521 to 0.000470522
Heightened Def Con from 0.000470525 to 0.000470526
Heightened Def Con from 0.00047175 to 0.000471751
Heightened Def Con from 0.000471751 to 0.000471754
Heightened Def Con from 0.000471755 to 0.000471776
Heightened Def Con from 0.000472979 to 0.000472979
Heightened Def Con from 0.000474203 to 0.000474207
Heightened Def Con from 0.000474207 to 0.000474228
Heightened Def Con from 0.000475428 to 0.000475431
Heightened Def Con from 0.000475432 to 0.000475453
Heightened Def Con from 0.000476654 to 0.000476657
Heightened Def Con from 0.000476657 to 0.000476678
Heightened Def Con from 0.000477879 to 0.000477882
Heightened Def Con from 0.000477882 to 0.000477903
Heightened Def Con from 0.000479104 to 0.000479107
Heightened Def Con from 0.000479107 to 0.000479108
Heightened Def Con from 0.000480329 to 0.000480332
Heightened Def Con from 0.000480333 to 0.000480354
Heightened Def Con from 0.000481554 to 0.000481555
Heightened Def Con from 0.000481555 to 0.000481558
Heightened Def Con from 0.000481558 to 0.000481579
Heightened Def Con from 0.000482779 to 0.00048278
Heightened Def Con from 0.00048278 to 0.000482783
Heightened Def Con from 0.000482784 to 0.000482805
Heightened Def Con from 0.000484006 to 0.000484009
Heightened Def Con from 0.000484009 to 0.00048403
Heightened Def Con from 0.000485232 to 0.000485235
Heightened Def Con from 0.000485235 to 0.000485256
Heightened Def Con from 0.000486457 to 0.000486461
Heightened Def Con from 0.000486461 to 0.000486462
Heightened Def Con from 0.000487684 to 0.000487687
Heightened Def Con from 0.000487687 to 0.000487688
Heightened Def Con from 0.00048891 to 0.000488913
Heightened Def Con from 0.000488913 to 0.000488914
Heightened Def Con from 0.000490134 to 0.000490135
Heightened Def Con from 0.000490138 to 0.000490138
Heightened Def Con from 0.000491364 to 0.000491364
Heightened Def Con from 0.000491365 to 0.000491368
Heightened Def Con from 0.000491368 to 0.000491389
Heightened Def Con from 0.000492589 to 0.00049259
Heightened Def Con from 0.00049259 to 0.000492593
Heightened Def Con from 0.000492594 to 0.000492615
Heightened Def Con from 0.000493815 to 0.000493815
Heightened Def Con from 0.000493818 to 0.000493819
Heightened Def Con from 0.000493819 to 0.00049382
Heightened Def Con from 0.000495043 to 0.000495046
Heightened Def Con from 0.000495046 to 0.000495048
Heightened Def Con from 0.000496269 to 0.00049627
Heightened Def Con from 0.000496273 to 0.000496273
Heightened Def Con from 0.0004975 to 0.000497503
Heightened Def Con from 0.000497503 to 0.000497524
Heightened Def Con from 0.000498725 to 0.000498726
Heightened Def Con from 0.000498729 to 0.00049873
Heightened Def Con from 0.000499956 to 0.000499959
Heightened Def Con from 0.000499959 to 0.00049998
Heightened Def Con from 0.000501182 to 0.000501185
Heightened Def Con from 0.000501185 to 0.000501186
Heightened Def Con from 0.000502408 to 0.000502412
Heightened Def Con from 0.000502412 to 0.000502433
Heightened Def Con from 0.000503635 to 0.000503638
Heightened Def Con from 0.000503638 to 0.000503659
Heightened Def Con from 0.000504861 to 0.000504864
Heightened Def Con from 0.000504864 to 0.000504885
Heightened Def Con from 0.000506088 to 0.000506091
Heightened Def Con from 0.000506091 to 0.000506112
Heightened Def Con from 0.000507314 to 0.000507317
Heightened Def Con from 0.000507317 to 0.000507338
Heightened Def Con from 0.00050854 to 0.000508543
Heightened Def Con from 0.000508543 to 0.000508564
Heightened Def Con from 0.000509765 to 0.000509766
Heightened Def Con from 0.000509769 to 0.00050977
Heightened Def Con from 0.000510996 to 0.000510997
Heightened Def Con from 0.000511 to 0.000511
Heightened Def Con from 0.000512227 to 0.00051223
Heightened Def Con from 0.000512231 to 0.000512252
Heightened Def Con from 0.000513457 to 0.00051346
Heightened Def Con from 0.00051346 to 0.000513481
Heightened Def Con from 0.000514682 to 0.000514683
Heightened Def Con from 0.000514683 to 0.000514687
Heightened Def Con from 0.000514687 to 0.000514708
Heightened Def Con from 0.000515913 to 0.000515914
Heightened Def Con from 0.000515917 to 0.000515918
Heightened Def Con from 0.000517144 to 0.000517147
Heightened Def Con from 0.000517148 to 0.000517169
Heightened Def Con from 0.00051837 to 0.000518373
Heightened Def Con from 0.000518373 to 0.000518394
Heightened Def Con from 0.000519597 to 0.0005196
Heightened Def Con from 0.0005196 to 0.000519601
Heightened Def Con from 0.000520824 to 0.000520827
Heightened Def Con from 0.000520827 to 0.000520848
Heightened Def Con from 0.00052205 to 0.000522053
Heightened Def Con from 0.000522053 to 0.000522074
Heightened Def Con from 0.000523276 to 0.000523279
Heightened Def Con from 0.000523279 to 0.0005233
Heightened Def Con from 0.000524504 to 0.000524507
Heightened Def Con from 0.000524507 to 0.000524508
Heightened Def Con from 0.000525731 to 0.000525734
Heightened Def Con from 0.000525734 to 0.000525755
Heightened Def Con from 0.000526957 to 0.000526958
Heightened Def Con from 0.000526961 to 0.000526962
Heightened Def Con from 0.000528187 to 0.00052819
Heightened Def Con from 0.00052819 to 0.000528191
Heightened Def Con from 0.000529414 to 0.000529417
Heightened Def Con from 0.000529418 to 0.000529439
Heightened Def Con from 0.000530641 to 0.000530644
Heightened Def Con from 0.000530644 to 0.000530665
Heightened Def Con from 0.000531868 to 0.000531871
Heightened Def Con from 0.000531871 to 0.000531892
Heightened Def Con from 0.000533094 to 0.000533095
Heightened Def Con from 0.000533098 to 0.000533099
Heightened Def Con from 0.000534325 to 0.000534328
Heightened Def Con from 0.000534328 to 0.000534349
Heightened Def Con from 0.000535552 to 0.000535556
Heightened Def Con from 0.000535556 to 0.000535557
Heightened Def Con from 0.000536779 to 0.000536782
Heightened Def Con from 0.000536783 to 0.000536804
Heightened Def Con from 0.00053801 to 0.00053801
Heightened Def Con from 0.000539236 to 0.000539239
Heightened Def Con from 0.000539239 to 0.00053926
Heightened Def Con from 0.000540463 to 0.000540464
Heightened Def Con from 0.000540467 to 0.000540467
Heightened Def Con from 0.000541694 to 0.000541696
Heightened Def Con from 0.000541698 to 0.000541699
Heightened Def Con from 0.000542927 to 0.00054293
Heightened Def Con from 0.00054293 to 0.000542951
Heightened Def Con from 0.000544158 to 0.000544159
Heightened Def Con from 0.000545385 to 0.000545386
Heightened Def Con from 0.000545387 to 0.000545388
Heightened Def Con from 0.000545388 to 0.000545389
Heightened Def Con from 0.000546617 to 0.00054662
Heightened Def Con from 0.00054662 to 0.000546641
Heightened Def Con from 0.000547847 to 0.000547848
Heightened Def Con from 0.000547848 to 0.000547849
Heightened Def Con from 0.000549077 to 0.000549098
Heightened Def Con from 0.000550302 to 0.000550303
Heightened Def Con from 0.000550306 to 0.000550306
Heightened Def Con from 0.000551534 to 0.000551535
Heightened Def Con from 0.000551538 to 0.000551538
Heightened Def Con from 0.000552764 to 0.000552767
Heightened Def Con from 0.000552767 to 0.000552788
Heightened Def Con from 0.000553992 to 0.000553995
Heightened Def Con from 0.000553995 to 0.000554016
Heightened Def Con from 0.00055522 to 0.000555224
Heightened Def Con from 0.000555224 to 0.000555245
Heightened Def Con from 0.000556449 to 0.00055645
Heightened Def Con from 0.000556451 to 0.000556452
Heightened Def Con from 0.000556452 to 0.000556453
Heightened Def Con from 0.000557681 to 0.000557684
Heightened Def Con from 0.000557685 to 0.000557686
Heightened Def Con from 0.000558909 to 0.000558912
Heightened Def Con from 0.000558913 to 0.000558934
Heightened Def Con from 0.00056014 to 0.00056014
Heightened Def Con from 0.000561367 to 0.00056137
Heightened Def Con from 0.000561371 to 0.000561372
Heightened Def Con from 0.000562594 to 0.000562595
Heightened Def Con from 0.000562598 to 0.000562598
Heightened Def Con from 0.000563827 to 0.00056383
Heightened Def Con from 0.000563831 to 0.000563852
Heightened Def Con from 0.000565056 to 0.000565059
Heightened Def Con from 0.000565059 to 0.00056508
Heightened Def Con from 0.000566285 to 0.000566286
Heightened Def Con from 0.000566289 to 0.000566289
Heightened Def Con from 0.000567518 to 0.000567521
Heightened Def Con from 0.000567521 to 0.000567542
Heightened Def Con from 0.000568747 to 0.00056875
Heightened Def Con from 0.00056875 to 0.000568771
Heightened Def Con from 0.000569975 to 0.000569978
Heightened Def Con from 0.000569978 to 0.000569999
Heightened Def Con from 0.000571203 to 0.000571206
Heightened Def Con from 0.000571206 to 0.000571207
Heightened Def Con from 0.000572431 to 0.000572434
Heightened Def Con from 0.000572435 to 0.000572436
Heightened Def Con from 0.00057366 to 0.000573661
Heightened Def Con from 0.000573664 to 0.000573685
Heightened Def Con from 0.000574892 to 0.000574892
Heightened Def Con from 0.000574893 to 0.000574896
Heightened Def Con from 0.000574896 to 0.000574917
Heightened Def Con from 0.000576121 to 0.000576125
Heightened Def Con from 0.000576125 to 0.000576146
Heightened Def Con from 0.00057735 to 0.000577353
Heightened Def Con from 0.000577353 to 0.000577374
Heightened Def Con from 0.000578579 to 0.000578583
Heightened Def Con from 0.000578583 to 0.000578604
Heightened Def Con from 0.000579809 to 0.000579812
Heightened Def Con from 0.000579812 to 0.000579833
Heightened Def Con from 0.000581038 to 0.000581041
Heightened Def Con from 0.000581041 to 0.000581062
Heightened Def Con from 0.000582267 to 0.00058227
Heightened Def Con from 0.00058227 to 0.000582291
Heightened Def Con from 0.000583499 to 0.000583499
Heightened Def Con from 0.000584729 to 0.00058473
Heightened Def Con from 0.000585959 to 0.000585959
Heightened Def Con from 0.000587188 to 0.000587191
Heightened Def Con from 0.000587191 to 0.000587212
Heightened Def Con from 0.000588417 to 0.00058842
Heightened Def Con from 0.00058842 to 0.000588441
Heightened Def Con from 0.000589647 to 0.00058965
Heightened Def Con from 0.00058965 to 0.000589671
Heightened Def Con from 0.000590875 to 0.000590879
Heightened Def Con from 0.000590879 to 0.0005909
Heightened Def Con from 0.000592104 to 0.000592105
Heightened Def Con from 0.000592108 to 0.000592109
Heightened Def Con from 0.000593338 to 0.000593341
Heightened Def Con from 0.000593341 to 0.000593362
Heightened Def Con from 0.000594567 to 0.00059457
Heightened Def Con from 0.00059457 to 0.000594591
Heightened Def Con from 0.000595799 to 0.000595799
Heightened Def Con from 0.000597027 to 0.000597028
Heightened Def Con from 0.000597031 to 0.000597031
Heightened Def Con from 0.000598261 to 0.000598264
Heightened Def Con from 0.000598265 to 0.000598266
Heightened Def Con from 0.000599491 to 0.000599495
Heightened Def Con from 0.000599495 to 0.000599516
Heightened Def Con from 0.000600721 to 0.000600722
Heightened Def Con from 0.000600725 to 0.000600726
Heightened Def Con from 0.000601956 to 0.000601959
Heightened Def Con from 0.000601959 to 0.00060198
Heightened Def Con from 0.000603185 to 0.000603185
Heightened Def Con from 0.000603189 to 0.000603189
Heightened Def Con from 0.000604417 to 0.00060442
Heightened Def Con from 0.00060442 to 0.000604441
Heightened Def Con from 0.000605648 to 0.000605651
Heightened Def Con from 0.000605651 to 0.000605652
Heightened Def Con from 0.000606878 to 0.000606881
Heightened Def Con from 0.000606881 to 0.000606902
Heightened Def Con from 0.000608109 to 0.000608112
Heightened Def Con from 0.000608112 to 0.000608133
Heightened Def Con from 0.000609338 to 0.000609341
Heightened Def Con from 0.000609341 to 0.000609362
Heightened Def Con from 0.000610567 to 0.000610568
Heightened Def Con from 0.000610571 to 0.000610571
Heightened Def Con from 0.000611801 to 0.000611801
Heightened Def Con from 0.000611802 to 0.000611805
Heightened Def Con from 0.000611805 to 0.000611826
Heightened Def Con from 0.000613032 to 0.000613035
Heightened Def Con from 0.000613035 to 0.000613056
Heightened Def Con from 0.000614263 to 0.000614266
Heightened Def Con from 0.000614266 to 0.000614267
Heightened Def Con from 0.000615493 to 0.000615496
Heightened Def Con from 0.000615496 to 0.000615517
Heightened Def Con from 0.000616723 to 0.000616724
Heightened Def Con from 0.000616727 to 0.000616728
Heightened Def Con from 0.000617958 to 0.000617961
Heightened Def Con from 0.000617961 to 0.000617982
Heightened Def Con from 0.000619189 to 0.000619192
Heightened Def Con from 0.000619192 to 0.000619193
Heightened Def Con from 0.000620418 to 0.000620419
Heightened Def Con from 0.000620419 to 0.000620422
Heightened Def Con from 0.000620422 to 0.000620443
Heightened Def Con from 0.000621656 to 0.000621656
Heightened Def Con from 0.000622885 to 0.000622888
Heightened Def Con from 0.000622888 to 0.000622909
Heightened Def Con from 0.000624115 to 0.000624115
Heightened Def Con from 0.000624116 to 0.000624119
Heightened Def Con from 0.000624119 to 0.00062414
Heightened Def Con from 0.000625346 to 0.000625349
Heightened Def Con from 0.000625349 to 0.00062537
Heightened Def Con from 0.000626577 to 0.00062658
Heightened Def Con from 0.00062658 to 0.000626581
Heightened Def Con from 0.000627808 to 0.000627812
Heightened Def Con from 0.000627812 to 0.000627813
Heightened Def Con from 0.000629039 to 0.00062904
Heightened Def Con from 0.000629043 to 0.000629044
Heightened Def Con from 0.000630274 to 0.000630277
Heightened Def Con from 0.000630277 to 0.000630298
Heightened Def Con from 0.000631505 to 0.000631505
Heightened Def Con from 0.000631505 to 0.000631509
Heightened Def Con from 0.000631509 to 0.00063153
Heightened Def Con from 0.000632736 to 0.00063274
Heightened Def Con from 0.00063274 to 0.000632741
Heightened Def Con from 0.000633967 to 0.000633968
Heightened Def Con from 0.000633971 to 0.000633971
Heightened Def Con from 0.000635202 to 0.000635206
Heightened Def Con from 0.000635206 to 0.000635227
Heightened Def Con from 0.000636434 to 0.000636437
Heightened Def Con from 0.000636437 to 0.000636458
Heightened Def Con from 0.000637665 to 0.000637668
Heightened Def Con from 0.000637668 to 0.000637689
Heightened Def Con from 0.000638897 to 0.0006389
Heightened Def Con from 0.0006389 to 0.000638901
Heightened Def Con from 0.000640128 to 0.000640131
Heightened Def Con from 0.000640131 to 0.000640152
Heightened Def Con from 0.000641359 to 0.00064136
Heightened Def Con from 0.000641363 to 0.000641364
Heightened Def Con from 0.000642595 to 0.000642599
Heightened Def Con from 0.000642599 to 0.00064262
Heightened Def Con from 0.000643827 to 0.00064383
Heightened Def Con from 0.00064383 to 0.000643831
Heightened Def Con from 0.000645059 to 0.00064506
Heightened Def Con from 0.000645062 to 0.000645063
Heightened Def Con from 0.000646295 to 0.000646298
Heightened Def Con from 0.000646298 to 0.000646319
Heightened Def Con from 0.000647527 to 0.00064753
Heightened Def Con from 0.00064753 to 0.000647531
Heightened Def Con from 0.000648759 to 0.000648762
Heightened Def Con from 0.000648762 to 0.000648783
Heightened Def Con from 0.00064999 to 0.000649991
Heightened Def Con from 0.000649993 to 0.000649994
Heightened Def Con from 0.000651226 to 0.000651229
Heightened Def Con from 0.000651229 to 0.00065125
Heightened Def Con from 0.000652458 to 0.000652461
Heightened Def Con from 0.000652461 to 0.000652482
Heightened Def Con from 0.00065369 to 0.000653693
Heightened Def Con from 0.000653694 to 0.000653715
Heightened Def Con from 0.000654923 to 0.000654926
Heightened Def Con from 0.000654926 to 0.000654927
Heightened Def Con from 0.000656155 to 0.000656158
Heightened Def Con from 0.000656158 to 0.000656179
Heightened Def Con from 0.000657387 to 0.000657388
Heightened Def Con from 0.00065739 to 0.000657391
Heightened Def Con from 0.000658623 to 0.000658626
Heightened Def Con from 0.000658626 to 0.000658647
Heightened Def Con from 0.000659855 to 0.000659855
Heightened Def Con from 0.000659856 to 0.000659859
Heightened Def Con from 0.000659859 to 0.00065988
Heightened Def Con from 0.000661088 to 0.000661091
Heightened Def Con from 0.000661091 to 0.000661112
Heightened Def Con from 0.000662319 to 0.00066232
Heightened Def Con from 0.000662323 to 0.000662323
Heightened Def Con from 0.000663553 to 0.000663556
Heightened Def Con from 0.000663557 to 0.000663578
Heightened Def Con from 0.000664788 to 0.000664788
Heightened Def Con from 0.000666018 to 0.000666022
Heightened Def Con from 0.000666022 to 0.000666023
Heightened Def Con from 0.000667251 to 0.000667254
Heightened Def Con from 0.000667255 to 0.000667256
Heightened Def Con from 0.000668484 to 0.000668487
Heightened Def Con from 0.000668487 to 0.000668508
Heightened Def Con from 0.000669717 to 0.00066972
Heightened Def Con from 0.00066972 to 0.000669741
Heightened Def Con from 0.000670952 to 0.000670953
Heightened Def Con from 0.000672183 to 0.000672184
Heightened Def Con from 0.000672184 to 0.000672187
Heightened Def Con from 0.000672188 to 0.000672209
Heightened Def Con from 0.000673417 to 0.00067342
Heightened Def Con from 0.00067342 to 0.000673422
Heightened Def Con from 0.000674654 to 0.000674654
Heightened Def Con from 0.000675886 to 0.000675889
Heightened Def Con from 0.000675889 to 0.00067591
Heightened Def Con from 0.000677121 to 0.000677123
Heightened Def Con from 0.000677123 to 0.000677124
Heightened Def Con from 0.000678355 to 0.000678358
Heightened Def Con from 0.000678358 to 0.000678379
Heightened Def Con from 0.000679587 to 0.000679588
Heightened Def Con from 0.000679591 to 0.000679591
Heightened Def Con from 0.000680824 to 0.000680825
Heightened Def Con from 0.000680828 to 0.000680828
Heightened Def Con from 0.000682061 to 0.000682062
Heightened Def Con from 0.000682065 to 0.000682066
Heightened Def Con from 0.000683299 to 0.000683302
Heightened Def Con from 0.000683303 to 0.000683324
Heightened Def Con from 0.000684533 to 0.000684536
Heightened Def Con from 0.000684536 to 0.000684557
Heightened Def Con from 0.000685766 to 0.00068577
Heightened Def Con from 0.00068577 to 0.000685791
Heightened Def Con from 0.000687 to 0.000687003
Heightened Def Con from 0.000687004 to 0.000687025
Heightened Def Con from 0.000688234 to 0.000688237
Heightened Def Con from 0.000688237 to 0.000688258
Heightened Def Con from 0.000689467 to 0.00068947
Heightened Def Con from 0.00068947 to 0.000689491
Heightened Def Con from 0.000690701 to 0.000690704
Heightened Def Con from 0.000690704 to 0.000690725
Heightened Def Con from 0.000691936 to 0.000691939
Heightened Def Con from 0.000691939 to 0.00069194
Heightened Def Con from 0.000693169 to 0.000693172
Heightened Def Con from 0.000693172 to 0.000693193
Heightened Def Con from 0.000694404 to 0.000694407
Heightened Def Con from 0.000694407 to 0.000694428
Heightened Def Con from 0.000695638 to 0.000695641
Heightened Def Con from 0.000695641 to 0.000695662
Heightened Def Con from 0.000696875 to 0.000696875
Heightened Def Con from 0.000698108 to 0.000698108
Heightened Def Con from 0.000698109 to 0.000698112
Heightened Def Con from 0.000698112 to 0.000698133
Heightened Def Con from 0.000699343 to 0.000699346
Heightened Def Con from 0.000699346 to 0.000699367
Heightened Def Con from 0.000700578 to 0.000700581
Heightened Def Con from 0.000700581 to 0.000700582
Heightened Def Con from 0.000701812 to 0.000701815
Heightened Def Con from 0.000701816 to 0.000701837
Heightened Def Con from 0.000703046 to 0.000703047
Heightened Def Con from 0.00070305 to 0.00070305
Heightened Def Con from 0.000704285 to 0.000704288
Heightened Def Con from 0.000704288 to 0.000704309
Heightened Def Con from 0.00070552 to 0.000705523
Heightened Def Con from 0.000705524 to 0.000705545
Heightened Def Con from 0.000706755 to 0.000706758
Heightened Def Con from 0.000706758 to 0.000706759
Heightened Def Con from 0.000707989 to 0.00070799
Heightened Def Con from 0.000707993 to 0.000708014
Heightened Def Con from 0.000709228 to 0.000709232
Heightened Def Con from 0.000709232 to 0.000709253
Heightened Def Con from 0.000710464 to 0.000710467
Heightened Def Con from 0.000710467 to 0.000710488
Heightened Def Con from 0.000711698 to 0.000711698
Heightened Def Con from 0.000711699 to 0.000711702
Heightened Def Con from 0.000711702 to 0.000711723
Heightened Def Con from 0.000712934 to 0.000712937
Heightened Def Con from 0.000712937 to 0.000712958
Heightened Def Con from 0.00071417 to 0.000714173
Heightened Def Con from 0.000714173 to 0.000714194
Heightened Def Con from 0.000715406 to 0.000715409
Heightened Def Con from 0.000715409 to 0.00071541
Heightened Def Con from 0.000716641 to 0.000716645
Heightened Def Con from 0.000716645 to 0.000716646
Heightened Def Con from 0.000717876 to 0.000717876
Heightened Def Con from 0.000717877 to 0.00071788
Heightened Def Con from 0.00071788 to 0.000717901
Heightened Def Con from 0.000719112 to 0.000719115
Heightened Def Con from 0.000719116 to 0.000719137
Heightened Def Con from 0.000720349 to 0.000720352
Heightened Def Con from 0.000720352 to 0.000720373
Heightened Def Con from 0.000721587 to 0.000721588
Heightened Def Con from 0.000722822 to 0.000722826
Heightened Def Con from 0.000722826 to 0.000722847
Heightened Def Con from 0.000724057 to 0.000724059
Heightened Def Con from 0.000724062 to 0.000724083
Heightened Def Con from 0.000725296 to 0.000725299
Heightened Def Con from 0.0007253 to 0.000725301
Heightened Def Con from 0.000726533 to 0.000726536
Heightened Def Con from 0.000726536 to 0.000726557
Heightened Def Con from 0.000727769 to 0.000727772
Heightened Def Con from 0.000727772 to 0.000727793
Heightened Def Con from 0.000729006 to 0.000729009
Heightened Def Con from 0.000729009 to 0.00072903
Heightened Def Con from 0.000730242 to 0.000730245
Heightened Def Con from 0.000730245 to 0.000730266
Heightened Def Con from 0.000731478 to 0.000731481
Heightened Def Con from 0.000731481 to 0.000731502
Heightened Def Con from 0.000732715 to 0.000732718
Heightened Def Con from 0.000732718 to 0.000732739
Heightened Def Con from 0.000733952 to 0.000733955
Heightened Def Con from 0.000733955 to 0.000733976
Heightened Def Con from 0.000735188 to 0.000735191
Heightened Def Con from 0.000735191 to 0.000735212
Heightened Def Con from 0.000736424 to 0.000736427
Heightened Def Con from 0.000736427 to 0.000736448
Heightened Def Con from 0.000737661 to 0.000737664
Heightened Def Con from 0.000737664 to 0.000737685
Heightened Def Con from 0.000738898 to 0.000738902
Heightened Def Con from 0.000738902 to 0.000738923
Heightened Def Con from 0.000740134 to 0.000740137
Heightened Def Con from 0.000740137 to 0.000740158
Heightened Def Con from 0.000741369 to 0.00074137
Heightened Def Con from 0.000741373 to 0.000741373
Heightened Def Con from 0.00074261 to 0.000742613
Heightened Def Con from 0.000742613 to 0.000742634
Heightened Def Con from 0.000743847 to 0.00074385
Heightened Def Con from 0.00074385 to 0.000743871
Heightened Def Con from 0.000745081 to 0.000745082
Heightened Def Con from 0.000745085 to 0.000745106
Heightened Def Con from 0.000746321 to 0.000746324
Heightened Def Con from 0.000746324 to 0.000746345
Heightened Def Con from 0.000747559 to 0.000747562
Heightened Def Con from 0.000747562 to 0.000747583
Heightened Def Con from 0.000748796 to 0.000748799
Heightened Def Con from 0.0007488 to 0.000748821
Heightened Def Con from 0.000750033 to 0.000750037
Heightened Def Con from 0.000750037 to 0.000750058
Heightened Def Con from 0.000751274 to 0.000751274
Heightened Def Con from 0.000752512 to 0.000752512
Heightened Def Con from 0.000752512 to 0.000752513
Heightened Def Con from 0.000753748 to 0.000753751
Heightened Def Con from 0.000753751 to 0.000753752
Heightened Def Con from 0.000754986 to 0.000754989
Heightened Def Con from 0.000754989 to 0.00075499
Heightened Def Con from 0.000756224 to 0.000756227
Heightened Def Con from 0.000756227 to 0.000756228
Heightened Def Con from 0.000757462 to 0.000757465
Heightened Def Con from 0.000757465 to 0.000757486
Heightened Def Con from 0.000758701 to 0.000758704
Heightened Def Con from 0.000758704 to 0.000758725
Heightened Def Con from 0.000759939 to 0.000759942
Heightened Def Con from 0.000759942 to 0.000759963
Heightened Def Con from 0.000761176 to 0.000761176
Heightened Def Con from 0.000761177 to 0.00076118
Heightened Def Con from 0.00076118 to 0.000761201
Heightened Def Con from 0.000762414 to 0.000762415
Heightened Def Con from 0.000762415 to 0.000762418
Heightened Def Con from 0.000762418 to 0.000762439
Heightened Def Con from 0.000763652 to 0.000763653
Heightened Def Con from 0.000763656 to 0.000763657
Heightened Def Con from 0.000764893 to 0.000764893
Heightened Def Con from 0.000764894 to 0.000764897
Heightened Def Con from 0.000764897 to 0.000764918
Heightened Def Con from 0.000766131 to 0.000766132
Heightened Def Con from 0.000766134 to 0.000766135
Heightened Def Con from 0.000766135 to 0.000766136
Heightened Def Con from 0.000767374 to 0.000767377
Heightened Def Con from 0.000767377 to 0.000767398
Heightened Def Con from 0.000768613 to 0.000768616
Heightened Def Con from 0.000768616 to 0.000768637
Heightened Def Con from 0.000769852 to 0.000769855
Heightened Def Con from 0.000769855 to 0.000769876
Heightened Def Con from 0.00077109 to 0.000771094
Heightened Def Con from 0.000771094 to 0.000771115
Heightened Def Con from 0.000772329 to 0.000772329
Heightened Def Con from 0.00077233 to 0.000772333
Heightened Def Con from 0.000772333 to 0.000772334
Heightened Def Con from 0.000772408 to 0.000772408
